data/linecode_library/LineCode_Impedances_adjusted.dss
New Linecode.uglv_240al_xlpe/nyl/pvc_ug_4w_bundled nphases=4  Units=km
~ Rmatrix=[0.211348  |0.049348 0.211348  |0.049348 0.049348 0.211348  |0.049348 0.049348 0.049348  0.211348  ]
~ Xmatrix=[0.739887785801019 | 0.6569999117147063 0.739887785801019 | 0.6352239998902349 0.6569999117147063 0.739887785801019 | 0.6569999117147063 0.6352239998902349 0.6569999117147063 0.739887785801019 ]
~ Cmatrix=[0. |0. 0. |0. 0. 0. |0. 0. 0. 0.]  ![12.0819  |-5.63977  12.0819  |0.112212  -5.63117  12.0995  |-5.63117  0.112212  -5.62224  12.0995  ]

New Linecode.uglv_185al_xlpe/nyl/pvc_ug_4w_bundled_kronreduced nphases=4  Units=km
~ Rmatrix=[0.260348  |0.049348 0.260348  |0.049348  0.049348  0.260348  |0.049348  0.049348  0.049348  0.260348  ]
~ Xmatrix=[0.7463562126050884 | 0.6623818146084621 0.7463562126050884 | 0.640605902783991 0.6623818146084623 0.7463562126050884 | 0.6623818146084623 0.640605902783991 0.6623818146084621 0.7463562126050884 ]
~ Cmatrix=[0. |0. 0. |0. 0. 0. |0. 0. 0. 0.] ! [11.8688  |-5.50628  11.8688  |0.0429688  -5.49861  11.8844  |-5.49861  0.0429688  -5.49066  11.8844  ]

New Linecode.uglv_185al_xlpe/nyl/pvc_ug_2w_bundled nphases=2  Units=km
~ Rmatrix=[0.260348  |0.049348  0.260348  ]
~ Xmatrix=[0.7463562126050884 | 0.6623818146084621 0.7463562126050884 ]
~ Cmatrix=[0.  |0.  0. ] ! original was [8.66171  |-6.94597  8.66171  ]

New Linecode.ugsc_16al_xlpe/pvc_ug_2w_bundled nphases=2  Units=km
~ Rmatrix=[2.489348  |0.049348  2.489348  ]
~ Xmatrix=[0.8243173274057423 |0.7255607644679731 0.8243173274057423  ]
~ Cmatrix=[0. |0. 0.] ![7.1134  |-5.71541  7.1134  ]

New Linecode.uglv_120cu_xlpe/nyl/pvc_ug_4w_bundled nphases=4  Units=km
~ Rmatrix=[0.246348  |0.049348  0.246348  |0.049348  0.049348  0.246348  |0.049348  0.049348  0.049348  0.246348  ]
~ Xmatrix=[0.7598115590125911 | 0.6741446902209445 0.7598115590125911 | 0.6523687783964733 0.6741446902209446 0.7598115590125911 | 0.6741446902209446 0.6523687783964733 0.6741446902209445 0.7598115590125911  ]
~ Cmatrix=[0. |0. 0. |0. 0. 0. |0. 0. 0. 0.] ! [11.5506  |-5.31262  11.5506  |-0.05814  -5.30658  11.5629  |-5.30658  -0.05814  -5.30038  11.5629  ]

New Linecode.ugsc_16cu_xlpe/nyl/pvc_ug_2w_bundled nphases=2  Units=km
~ Rmatrix=[1.519348  |0.049348  1.519348  ]
~ Xmatrix=[0.8243173274057423 | 0.715279600512915 0.8243173274057423  ]
~ Cmatrix=[0. |0. 0.] ! [6.41636  |-4.99925  6.41636  ]

New Linecode.ugsc_25cu_xlpe/nyl/pvc_ug_2w_bundled nphases=2  Units=km
~ Rmatrix=[0.976348  |0.049348  0.976348  ]
~ Xmatrix=[0.8102967717895678 | 0.7064465553914843 0.8102967717895678 ]
~ Cmatrix=[0. |0. 0.] ! [6.77453  |-5.31299  6.77453  ]

New Linecode.abc4x95_lv_oh_4w_bundled_kronreduced nphases=4  Units=km
~ Rmatrix=[0.447348  |0.049348  0.447348  |0.049348  0.049348  0.447348  |0.049348  0.049348  0.049348  0.447348  ]
~ Xmatrix=[0.7672707420039232 | 0.6922203301972348 0.7672707420039232 | 0.6704444183727633 0.6922203301972341 0.7672707420039232 | 0.6922203301972341 0.6704444183727633 0.6922203301972348 0.7672707420039232  ]
~ Cmatrix=[0. |0. 0. |0. 0. 0. |0. 0. 0. 0.] ! [13.8128  |-6.9345  13.8128  |0.679407  -6.93387  13.814  |-6.93387  0.679407  -6.93323  13.814  ]

New Linecode.tw4x16_lv_oh_4w_bundled nphases=4  Units=km
~ Rmatrix=[2.421348  |0.049348  2.421348  |0.049348  0.049348  2.421348  |0.049348  0.049348  0.049348  2.421348  ]
~ Xmatrix=[0.8296417882720325 | 0.7412616566790088 0.8296417882720325 | 0.7194857448545366 0.7412616566790069 0.8296417882720325 | 0.7412616566790069 0.7194857448545366 0.7412616566790088 0.8296417882720325  ]
~ Cmatrix=[0. |0. 0. |0. 0. 0. |0. 0. 0. 0.] ! [11.0124  |-5.09427  11.0124  |-0.267766  -5.09405  11.0128  |-5.09405  -0.267766  -5.09383  11.0128  ]

New Linecode.abc2x16_lv_oh_2w_bundled_kronreduced nphases=2  Units=km
~ Rmatrix=[2.421348  |0.049348  2.421348  ]
~ Xmatrix=[0.82302177635222 |0.737016392524451 0.82302177635222  ]
~ Cmatrix=[0. |0. 0.] ! [8.11423  |-7.04148  8.11423  ]

New Linecode.tw2x16_lv_oh_2w_bundled nphases=2  Units=km
~ Rmatrix=[2.421348  |0.049348  2.421348  ]
~ Xmatrix=[0.8296417882720325 |0.7412616566790088 0.8296417882720325  ]
~ Cmatrix=[0. |0. 0.] ! [7.8608  |-6.79966  7.8608  ]